# `model_configure` generated with NEMSpy 1.3.0.post1.dev0+7d8af3c
total_member:            1
print_esmf:              .true.
namelist:                atm_namelist
PE_MEMBER01:             600
start_year:              2008
start_month:             8
start_day:               10
start_hour:              12
start_minute:            0
start_second:            0
nhours_fcst:             300
RUN_CONTINUE:            .false.
ENS_SPS:                 .false.
