created on 2021-03-24 13:00                                     ! RUNDES
 Shinacock Inlet Coarse Grid                                    ! RUNID
1                                                               ! NFOVER
1                                                               ! NABOUT
100                                                             ! NSCREEN
0                                                               ! IHOT
2                                                               ! ICS
511113                                                          ! IM
2                                                               ! NOLIBF
2                                                               ! NOLIFA
1                                                               ! NOLICA
1                                                               ! NOLICAT
0                                                               ! NWP
1                                                               ! NCOR
1                                                               ! NTIP
0                                                               ! NWS
1                                                               ! NRAMP
9.81                                                            ! gravitational acceleration
0.005                                                           ! TAU0
2.510781                                                        ! DTDP
0                                                               ! STATIM
0                                                               ! REFTIM
5                                                               ! RNDAY
5                                                               ! DRAMP
0.5 0.5 0                                                       ! A00 B00 C00
0.01 0 0 0.01                                                   ! H0 ? ? VELMIN
-72.4759 40.7602                                                ! SLAM0 SFEA0
0.0025 1 10 0.333333                                            ! CF HBREAK FTHETA FGAMMA
-0.2                                                            ! smagorinsky coefficient
0                                                               ! CORI
8                                                               ! NTIF
Q1
0.019256 6.49585E-05 0.695 1.14555 174.965
O1
0.100514 6.75977E-05 0.695 1.14555 83.1734
P1
0.046843 7.25229E-05 0.706 1 123.267
K1
0.141565 7.29212E-05 0.736 1.08991 242.08
N2
0.046398 0.00013788 0.693 0.972751 59.2296
M2
0.242334 0.000140519 0.693 0.972751 327.438
S2
0.112841 0.000145444 0.693 1 0
K2
0.030704 0.000145842 0.693 1.23723 304.711
8
Q1
6.49585E-05 1.14555 174.965
O1
6.75977E-05 1.14555 83.1734
P1
7.25229E-05 1 123.267
K1
7.29212E-05 1.08991 242.08
N2
0.00013788 0.972751 59.2296
M2
0.000140519 0.972751 327.438
S2
0.000145444 1 0
K2
0.000145842 1.23723 304.711
Q1
1.20000001e-02 1.73320007e+00
1.20000001e-02 1.73320007e+00
1.20000001e-02 1.73320007e+00
1.20000001e-02 1.73320007e+00
1.20000001e-02 1.73320007e+00
1.20000001e-02 1.73320007e+00
1.20000001e-02 1.73320007e+00
1.20000001e-02 1.73320007e+00
1.20000001e-02 1.73320007e+00
1.19000003e-02 1.72880006e+00
1.19000003e-02 1.72880006e+00
1.19000003e-02 1.72880006e+00
1.20000001e-02 1.72429991e+00
1.20000001e-02 1.72429991e+00
1.20000001e-02 1.72429991e+00
1.20000001e-02 1.72429991e+00
1.20000001e-02 1.72429991e+00
1.20000001e-02 1.72429991e+00
1.20000001e-02 1.72429991e+00
1.20000001e-02 1.72429991e+00
1.20000001e-02 1.72049999e+00
1.20000001e-02 1.72049999e+00
1.20000001e-02 1.72049999e+00
1.20000001e-02 1.72049999e+00
1.20000001e-02 1.72049999e+00
1.20000001e-02 1.72049999e+00
1.19000003e-02 1.71740007e+00
1.19000003e-02 1.71740007e+00
1.19000003e-02 1.71740007e+00
1.19000003e-02 1.71740007e+00
1.19000003e-02 1.71740007e+00
1.19000003e-02 1.71740007e+00
1.19000003e-02 1.71740007e+00
1.20000001e-02 1.71389997e+00
1.20000001e-02 1.71389997e+00
1.20000001e-02 1.71389997e+00
1.20000001e-02 1.71389997e+00
1.20000001e-02 1.71389997e+00
1.20000001e-02 1.71389997e+00
1.20999999e-02 1.71229994e+00
1.20999999e-02 1.71229994e+00
1.20999999e-02 1.71229994e+00
1.20999999e-02 1.71229994e+00
1.20999999e-02 1.71229994e+00
1.20999999e-02 1.71229994e+00
1.20999999e-02 1.71229994e+00
1.20999999e-02 1.71229994e+00
1.20999999e-02 1.71320009e+00
1.20999999e-02 1.71320009e+00
1.20999999e-02 1.71320009e+00
1.20999999e-02 1.71320009e+00
1.20999999e-02 1.71320009e+00
1.20000001e-02 1.71389997e+00
1.20000001e-02 1.71389997e+00
1.20000001e-02 1.71389997e+00
1.20000001e-02 1.71389997e+00
1.20000001e-02 1.71389997e+00
1.20000001e-02 1.71389997e+00
1.20000001e-02 1.71389997e+00
1.19000003e-02 1.71149993e+00
1.19000003e-02 1.71149993e+00
1.19000003e-02 1.71149993e+00
1.19000003e-02 1.71149993e+00
1.19000003e-02 1.71149993e+00
1.19000003e-02 1.71149993e+00
1.17999995e-02 1.70779991e+00
1.17999995e-02 1.70779991e+00
1.17999995e-02 1.70779991e+00
1.17999995e-02 1.70779991e+00
1.17999995e-02 1.70779991e+00
1.17999995e-02 1.70779991e+00
1.17999995e-02 1.70779991e+00
1.17999995e-02 1.70779991e+00
1.17999995e-02 1.70779991e+00
1.17999995e-02 1.70779991e+00
O1
4.91999984e-02 1.76880002e+00
4.91999984e-02 1.76880002e+00
4.91999984e-02 1.76880002e+00
4.91999984e-02 1.76880002e+00
4.91999984e-02 1.76880002e+00
4.91999984e-02 1.76880002e+00
4.91999984e-02 1.76880002e+00
4.91999984e-02 1.76880002e+00
4.91999984e-02 1.76880002e+00
5.09000011e-02 1.76300001e+00
5.09000011e-02 1.76300001e+00
5.09000011e-02 1.76300001e+00
5.07999994e-02 1.77689993e+00
5.07999994e-02 1.77689993e+00
5.07999994e-02 1.77689993e+00
5.07999994e-02 1.77689993e+00
5.07999994e-02 1.77689993e+00
5.07999994e-02 1.77689993e+00
5.07999994e-02 1.77689993e+00
5.07999994e-02 1.77689993e+00
5.07999994e-02 1.78850007e+00
5.07999994e-02 1.78850007e+00
5.07999994e-02 1.78850007e+00
5.07999994e-02 1.78850007e+00
5.07999994e-02 1.78850007e+00
5.07999994e-02 1.78850007e+00
5.09999990e-02 1.79890001e+00
5.09999990e-02 1.79890001e+00
5.09999990e-02 1.79890001e+00
5.09999990e-02 1.79890001e+00
5.09999990e-02 1.79890001e+00
5.09999990e-02 1.79890001e+00
5.09999990e-02 1.79890001e+00
5.13000004e-02 1.80999994e+00
5.13000004e-02 1.80999994e+00
5.13000004e-02 1.80999994e+00
5.13000004e-02 1.80999994e+00
5.13000004e-02 1.80999994e+00
5.13000004e-02 1.80999994e+00
5.15999980e-02 1.82110000e+00
5.15999980e-02 1.82110000e+00
5.15999980e-02 1.82110000e+00
5.15999980e-02 1.82110000e+00
5.15999980e-02 1.82110000e+00
5.15999980e-02 1.82110000e+00
5.15999980e-02 1.82110000e+00
5.15999980e-02 1.82110000e+00
5.19999973e-02 1.83299994e+00
5.19999973e-02 1.83299994e+00
5.19999973e-02 1.83299994e+00
5.19999973e-02 1.83299994e+00
5.19999973e-02 1.83299994e+00
5.03000021e-02 1.84710002e+00
5.03000021e-02 1.84710002e+00
5.03000021e-02 1.84710002e+00
5.03000021e-02 1.84710002e+00
5.03000021e-02 1.84710002e+00
5.03000021e-02 1.84710002e+00
5.03000021e-02 1.84710002e+00
4.88999970e-02 1.86440003e+00
4.88999970e-02 1.86440003e+00
4.88999970e-02 1.86440003e+00
4.88999970e-02 1.86440003e+00
4.88999970e-02 1.86440003e+00
4.88999970e-02 1.86440003e+00
4.78999987e-02 1.88479996e+00
4.78999987e-02 1.88479996e+00
4.78999987e-02 1.88479996e+00
4.78999987e-02 1.88479996e+00
4.78999987e-02 1.88479996e+00
4.78999987e-02 1.88479996e+00
4.78999987e-02 1.88479996e+00
4.78999987e-02 1.88479996e+00
4.78999987e-02 1.88479996e+00
4.78999987e-02 1.88479996e+00
P1
3.09999976e-02 1.87429988e+00
3.09999976e-02 1.87429988e+00
3.09999976e-02 1.87429988e+00
3.09999976e-02 1.87429988e+00
3.09999976e-02 1.87429988e+00
3.09999976e-02 1.87429988e+00
3.09999976e-02 1.87429988e+00
3.09999976e-02 1.87429988e+00
3.09999976e-02 1.87429988e+00
3.11999973e-02 1.87500000e+00
3.11999973e-02 1.87500000e+00
3.11999973e-02 1.87500000e+00
3.09999976e-02 1.87269998e+00
3.09999976e-02 1.87269998e+00
3.09999976e-02 1.87269998e+00
3.09999976e-02 1.87269998e+00
3.09999976e-02 1.87269998e+00
3.09999976e-02 1.87269998e+00
3.09999976e-02 1.87269998e+00
3.09999976e-02 1.87269998e+00
3.07999980e-02 1.87070000e+00
3.07999980e-02 1.87070000e+00
3.07999980e-02 1.87070000e+00
3.07999980e-02 1.87070000e+00
3.07999980e-02 1.87070000e+00
3.07999980e-02 1.87070000e+00
3.05999983e-02 1.86880004e+00
3.05999983e-02 1.86880004e+00
3.05999983e-02 1.86880004e+00
3.05999983e-02 1.86880004e+00
3.05999983e-02 1.86880004e+00
3.05999983e-02 1.86880004e+00
3.05999983e-02 1.86880004e+00
3.03999986e-02 1.86729991e+00
3.03999986e-02 1.86729991e+00
3.03999986e-02 1.86729991e+00
3.03999986e-02 1.86729991e+00
3.03999986e-02 1.86729991e+00
3.03999986e-02 1.86729991e+00
3.02999988e-02 1.86600006e+00
3.02999988e-02 1.86600006e+00
3.02999988e-02 1.86600006e+00
3.02999988e-02 1.86600006e+00
3.02999988e-02 1.86600006e+00
3.02999988e-02 1.86600006e+00
3.02999988e-02 1.86600006e+00
3.02999988e-02 1.86600006e+00
3.01999990e-02 1.86489999e+00
3.01999990e-02 1.86489999e+00
3.01999990e-02 1.86489999e+00
3.01999990e-02 1.86489999e+00
3.01999990e-02 1.86489999e+00
2.99999993e-02 1.87109995e+00
2.99999993e-02 1.87109995e+00
2.99999993e-02 1.87109995e+00
2.99999993e-02 1.87109995e+00
2.99999993e-02 1.87109995e+00
2.99999993e-02 1.87109995e+00
2.99999993e-02 1.87109995e+00
2.96999998e-02 1.87789989e+00
2.96999998e-02 1.87789989e+00
2.96999998e-02 1.87789989e+00
2.96999998e-02 1.87789989e+00
2.96999998e-02 1.87789989e+00
2.96999998e-02 1.87789989e+00
2.94000003e-02 1.88460004e+00
2.94000003e-02 1.88460004e+00
2.94000003e-02 1.88460004e+00
2.94000003e-02 1.88460004e+00
2.94000003e-02 1.88460004e+00
2.94000003e-02 1.88460004e+00
2.94000003e-02 1.88460004e+00
2.94000003e-02 1.88460004e+00
2.94000003e-02 1.88460004e+00
2.94000003e-02 1.88460004e+00
K1
8.28999951e-02 1.72270000e+00
8.28999951e-02 1.72270000e+00
8.28999951e-02 1.72270000e+00
8.28999951e-02 1.72270000e+00
8.28999951e-02 1.72270000e+00
8.28999951e-02 1.72270000e+00
8.28999951e-02 1.72270000e+00
8.28999951e-02 1.72270000e+00
8.28999951e-02 1.72270000e+00
8.39000046e-02 1.72860003e+00
8.39000046e-02 1.72860003e+00
8.39000046e-02 1.72860003e+00
8.29999968e-02 1.73259985e+00
8.29999968e-02 1.73259985e+00
8.29999968e-02 1.73259985e+00
8.29999968e-02 1.73259985e+00
8.29999968e-02 1.73259985e+00
8.29999968e-02 1.73259985e+00
8.29999968e-02 1.73259985e+00
8.29999968e-02 1.73259985e+00
8.22999924e-02 1.73660004e+00
8.22999924e-02 1.73660004e+00
8.22999924e-02 1.73660004e+00
8.22999924e-02 1.73660004e+00
8.22999924e-02 1.73660004e+00
8.22999924e-02 1.73660004e+00
8.15999955e-02 1.74089992e+00
8.15999955e-02 1.74089992e+00
8.15999955e-02 1.74089992e+00
8.15999955e-02 1.74089992e+00
8.15999955e-02 1.74089992e+00
8.15999955e-02 1.74089992e+00
8.15999955e-02 1.74089992e+00
8.10000002e-02 1.74389994e+00
8.10000002e-02 1.74389994e+00
8.10000002e-02 1.74389994e+00
8.10000002e-02 1.74389994e+00
8.10000002e-02 1.74389994e+00
8.10000002e-02 1.74389994e+00
8.03999975e-02 1.74809992e+00
8.03999975e-02 1.74809992e+00
8.03999975e-02 1.74809992e+00
8.03999975e-02 1.74809992e+00
8.03999975e-02 1.74809992e+00
8.03999975e-02 1.74809992e+00
8.03999975e-02 1.74809992e+00
8.03999975e-02 1.74809992e+00
7.97999948e-02 1.75389993e+00
7.97999948e-02 1.75389993e+00
7.97999948e-02 1.75389993e+00
7.97999948e-02 1.75389993e+00
7.97999948e-02 1.75389993e+00
7.84000009e-02 1.74969995e+00
7.84000009e-02 1.74969995e+00
7.84000009e-02 1.74969995e+00
7.84000009e-02 1.74969995e+00
7.84000009e-02 1.74969995e+00
7.84000009e-02 1.74969995e+00
7.84000009e-02 1.74969995e+00
7.69999996e-02 1.74520004e+00
7.69999996e-02 1.74520004e+00
7.69999996e-02 1.74520004e+00
7.69999996e-02 1.74520004e+00
7.69999996e-02 1.74520004e+00
7.69999996e-02 1.74520004e+00
7.55999982e-02 1.74189997e+00
7.55999982e-02 1.74189997e+00
7.55999982e-02 1.74189997e+00
7.55999982e-02 1.74189997e+00
7.55999982e-02 1.74189997e+00
7.55999982e-02 1.74189997e+00
7.55999982e-02 1.74189997e+00
7.55999982e-02 1.74189997e+00
7.55999982e-02 1.74189997e+00
7.55999982e-02 1.74189997e+00
N2
1.29999995e-01 3.29299974e+00
1.29999995e-01 3.29299974e+00
1.29999995e-01 3.29299974e+00
1.29999995e-01 3.29299974e+00
1.29999995e-01 3.29299974e+00
1.29999995e-01 3.29299974e+00
1.29999995e-01 3.29299974e+00
1.29999995e-01 3.29299974e+00
1.29999995e-01 3.29299974e+00
1.30199999e-01 3.29869986e+00
1.30199999e-01 3.29869986e+00
1.30199999e-01 3.29869986e+00
1.27899989e-01 3.30029988e+00
1.27899989e-01 3.30029988e+00
1.27899989e-01 3.30029988e+00
1.27899989e-01 3.30029988e+00
1.27899989e-01 3.30029988e+00
1.27899989e-01 3.30029988e+00
1.27899989e-01 3.30029988e+00
1.27899989e-01 3.30029988e+00
1.25900000e-01 3.30219984e+00
1.25900000e-01 3.30219984e+00
1.25900000e-01 3.30219984e+00
1.25900000e-01 3.30219984e+00
1.25900000e-01 3.30219984e+00
1.25900000e-01 3.30219984e+00
1.23900004e-01 3.30379987e+00
1.23900004e-01 3.30379987e+00
1.23900004e-01 3.30379987e+00
1.23900004e-01 3.30379987e+00
1.23900004e-01 3.30379987e+00
1.23900004e-01 3.30379987e+00
1.23900004e-01 3.30379987e+00
1.22199997e-01 3.30799985e+00
1.22199997e-01 3.30799985e+00
1.22199997e-01 3.30799985e+00
1.22199997e-01 3.30799985e+00
1.22199997e-01 3.30799985e+00
1.22199997e-01 3.30799985e+00
1.20799996e-01 3.31179976e+00
1.20799996e-01 3.31179976e+00
1.20799996e-01 3.31179976e+00
1.20799996e-01 3.31179976e+00
1.20799996e-01 3.31179976e+00
1.20799996e-01 3.31179976e+00
1.20799996e-01 3.31179976e+00
1.20799996e-01 3.31179976e+00
1.19599998e-01 3.31499982e+00
1.19599998e-01 3.31499982e+00
1.19599998e-01 3.31499982e+00
1.19599998e-01 3.31499982e+00
1.19599998e-01 3.31499982e+00
1.19999997e-01 3.31709981e+00
1.19999997e-01 3.31709981e+00
1.19999997e-01 3.31709981e+00
1.19999997e-01 3.31709981e+00
1.19999997e-01 3.31709981e+00
1.19999997e-01 3.31709981e+00
1.19999997e-01 3.31709981e+00
1.19700000e-01 3.32029986e+00
1.19700000e-01 3.32029986e+00
1.19700000e-01 3.32029986e+00
1.19700000e-01 3.32029986e+00
1.19700000e-01 3.32029986e+00
1.19700000e-01 3.32029986e+00
1.18900001e-01 3.32540011e+00
1.18900001e-01 3.32540011e+00
1.18900001e-01 3.32540011e+00
1.18900001e-01 3.32540011e+00
1.18900001e-01 3.32540011e+00
1.18900001e-01 3.32540011e+00
1.18900001e-01 3.32540011e+00
1.18900001e-01 3.32540011e+00
1.18900001e-01 3.32540011e+00
1.18900001e-01 3.32540011e+00
M2
5.40600002e-01 3.45779991e+00
5.40600002e-01 3.45779991e+00
5.40600002e-01 3.45779991e+00
5.40600002e-01 3.45779991e+00
5.40600002e-01 3.45779991e+00
5.40600002e-01 3.45779991e+00
5.40600002e-01 3.45779991e+00
5.40600002e-01 3.45779991e+00
5.40600002e-01 3.45779991e+00
5.42299986e-01 3.46429992e+00
5.42299986e-01 3.46429992e+00
5.42299986e-01 3.46429992e+00
5.28800011e-01 3.46819997e+00
5.28800011e-01 3.46819997e+00
5.28800011e-01 3.46819997e+00
5.28800011e-01 3.46819997e+00
5.28800011e-01 3.46819997e+00
5.28800011e-01 3.46819997e+00
5.28800011e-01 3.46819997e+00
5.28800011e-01 3.46819997e+00
5.15799999e-01 3.47129989e+00
5.15799999e-01 3.47129989e+00
5.15799999e-01 3.47129989e+00
5.15799999e-01 3.47129989e+00
5.15799999e-01 3.47129989e+00
5.15799999e-01 3.47129989e+00
5.02799988e-01 3.47320008e+00
5.02799988e-01 3.47320008e+00
5.02799988e-01 3.47320008e+00
5.02799988e-01 3.47320008e+00
5.02799988e-01 3.47320008e+00
5.02799988e-01 3.47320008e+00
5.02799988e-01 3.47320008e+00
4.94000018e-01 3.48129988e+00
4.94000018e-01 3.48129988e+00
4.94000018e-01 3.48129988e+00
4.94000018e-01 3.48129988e+00
4.94000018e-01 3.48129988e+00
4.94000018e-01 3.48129988e+00
4.85599995e-01 3.48829985e+00
4.85599995e-01 3.48829985e+00
4.85599995e-01 3.48829985e+00
4.85599995e-01 3.48829985e+00
4.85599995e-01 3.48829985e+00
4.85599995e-01 3.48829985e+00
4.85599995e-01 3.48829985e+00
4.85599995e-01 3.48829985e+00
4.77599978e-01 3.49429989e+00
4.77599978e-01 3.49429989e+00
4.77599978e-01 3.49429989e+00
4.77599978e-01 3.49429989e+00
4.77599978e-01 3.49429989e+00
4.78300005e-01 3.49699998e+00
4.78300005e-01 3.49699998e+00
4.78300005e-01 3.49699998e+00
4.78300005e-01 3.49699998e+00
4.78300005e-01 3.49699998e+00
4.78300005e-01 3.49699998e+00
4.78300005e-01 3.49699998e+00
4.76199985e-01 3.50139999e+00
4.76199985e-01 3.50139999e+00
4.76199985e-01 3.50139999e+00
4.76199985e-01 3.50139999e+00
4.76199985e-01 3.50139999e+00
4.76199985e-01 3.50139999e+00
4.71300006e-01 3.50739980e+00
4.71300006e-01 3.50739980e+00
4.71300006e-01 3.50739980e+00
4.71300006e-01 3.50739980e+00
4.71300006e-01 3.50739980e+00
4.71300006e-01 3.50739980e+00
4.71300006e-01 3.50739980e+00
4.71300006e-01 3.50739980e+00
4.71300006e-01 3.50739980e+00
4.71300006e-01 3.50739980e+00
S2
1.23699993e-01 9.14000049e-02
1.23699993e-01 9.14000049e-02
1.23699993e-01 9.14000049e-02
1.23699993e-01 9.14000049e-02
1.23699993e-01 9.14000049e-02
1.23699993e-01 9.14000049e-02
1.23699993e-01 9.14000049e-02
1.23699993e-01 9.14000049e-02
1.23699993e-01 9.14000049e-02
1.23199992e-01 9.94999930e-02
1.23199992e-01 9.94999930e-02
1.23199992e-01 9.94999930e-02
1.20799996e-01 9.88999978e-02
1.20799996e-01 9.88999978e-02
1.20799996e-01 9.88999978e-02
1.20799996e-01 9.88999978e-02
1.20799996e-01 9.88999978e-02
1.20799996e-01 9.88999978e-02
1.20799996e-01 9.88999978e-02
1.20799996e-01 9.88999978e-02
1.18699998e-01 9.85999927e-02
1.18699998e-01 9.85999927e-02
1.18699998e-01 9.85999927e-02
1.18699998e-01 9.85999927e-02
1.18699998e-01 9.85999927e-02
1.18699998e-01 9.85999927e-02
1.16700001e-01 9.83999968e-02
1.16700001e-01 9.83999968e-02
1.16700001e-01 9.83999968e-02
1.16700001e-01 9.83999968e-02
1.16700001e-01 9.83999968e-02
1.16700001e-01 9.83999968e-02
1.16700001e-01 9.83999968e-02
1.14499994e-01 9.95999947e-02
1.14499994e-01 9.95999947e-02
1.14499994e-01 9.95999947e-02
1.14499994e-01 9.95999947e-02
1.14499994e-01 9.95999947e-02
1.14499994e-01 9.95999947e-02
1.12700000e-01 1.00600004e-01
1.12700000e-01 1.00600004e-01
1.12700000e-01 1.00600004e-01
1.12700000e-01 1.00600004e-01
1.12700000e-01 1.00600004e-01
1.12700000e-01 1.00600004e-01
1.12700000e-01 1.00600004e-01
1.12700000e-01 1.00600004e-01
1.11299999e-01 1.01300001e-01
1.11299999e-01 1.01300001e-01
1.11299999e-01 1.01300001e-01
1.11299999e-01 1.01300001e-01
1.11299999e-01 1.01300001e-01
1.12199999e-01 1.00200005e-01
1.12199999e-01 1.00200005e-01
1.12199999e-01 1.00200005e-01
1.12199999e-01 1.00200005e-01
1.12199999e-01 1.00200005e-01
1.12199999e-01 1.00200005e-01
1.12199999e-01 1.00200005e-01
1.12499997e-01 9.98999923e-02
1.12499997e-01 9.98999923e-02
1.12499997e-01 9.98999923e-02
1.12499997e-01 9.98999923e-02
1.12499997e-01 9.98999923e-02
1.12499997e-01 9.98999923e-02
1.12099998e-01 1.00800000e-01
1.12099998e-01 1.00800000e-01
1.12099998e-01 1.00800000e-01
1.12099998e-01 1.00800000e-01
1.12099998e-01 1.00800000e-01
1.12099998e-01 1.00800000e-01
1.12099998e-01 1.00800000e-01
1.12099998e-01 1.00800000e-01
1.12099998e-01 1.00800000e-01
1.12099998e-01 1.00800000e-01
K2
2.96999998e-02 7.88999945e-02
2.96999998e-02 7.88999945e-02
2.96999998e-02 7.88999945e-02
2.96999998e-02 7.88999945e-02
2.96999998e-02 7.88999945e-02
2.96999998e-02 7.88999945e-02
2.96999998e-02 7.88999945e-02
2.96999998e-02 7.88999945e-02
2.96999998e-02 7.88999945e-02
2.96000000e-02 8.76000002e-02
2.96000000e-02 8.76000002e-02
2.96000000e-02 8.76000002e-02
2.89000012e-02 8.64000022e-02
2.89000012e-02 8.64000022e-02
2.89000012e-02 8.64000022e-02
2.89000012e-02 8.64000022e-02
2.89000012e-02 8.64000022e-02
2.89000012e-02 8.64000022e-02
2.89000012e-02 8.64000022e-02
2.89000012e-02 8.64000022e-02
2.83999983e-02 8.57999995e-02
2.83999983e-02 8.57999995e-02
2.83999983e-02 8.57999995e-02
2.83999983e-02 8.57999995e-02
2.83999983e-02 8.57999995e-02
2.83999983e-02 8.57999995e-02
2.78999992e-02 8.52000043e-02
2.78999992e-02 8.52000043e-02
2.78999992e-02 8.52000043e-02
2.78999992e-02 8.52000043e-02
2.78999992e-02 8.52000043e-02
2.78999992e-02 8.52000043e-02
2.78999992e-02 8.52000043e-02
2.73000002e-02 8.60999972e-02
2.73000002e-02 8.60999972e-02
2.73000002e-02 8.60999972e-02
2.73000002e-02 8.60999972e-02
2.73000002e-02 8.60999972e-02
2.73000002e-02 8.60999972e-02
2.67999992e-02 8.69999975e-02
2.67999992e-02 8.69999975e-02
2.67999992e-02 8.69999975e-02
2.67999992e-02 8.69999975e-02
2.67999992e-02 8.69999975e-02
2.67999992e-02 8.69999975e-02
2.67999992e-02 8.69999975e-02
2.67999992e-02 8.69999975e-02
2.64999997e-02 8.77999961e-02
2.64999997e-02 8.77999961e-02
2.64999997e-02 8.77999961e-02
2.64999997e-02 8.77999961e-02
2.64999997e-02 8.77999961e-02
2.66999993e-02 8.57999995e-02
2.66999993e-02 8.57999995e-02
2.66999993e-02 8.57999995e-02
2.66999993e-02 8.57999995e-02
2.66999993e-02 8.57999995e-02
2.66999993e-02 8.57999995e-02
2.66999993e-02 8.57999995e-02
2.67999992e-02 8.43000039e-02
2.67999992e-02 8.43000039e-02
2.67999992e-02 8.43000039e-02
2.67999992e-02 8.43000039e-02
2.67999992e-02 8.43000039e-02
2.67999992e-02 8.43000039e-02
2.66999993e-02 8.42000023e-02
2.66999993e-02 8.42000023e-02
2.66999993e-02 8.42000023e-02
2.66999993e-02 8.42000023e-02
2.66999993e-02 8.42000023e-02
2.66999993e-02 8.42000023e-02
2.66999993e-02 8.42000023e-02
2.66999993e-02 8.42000023e-02
2.66999993e-02 8.42000023e-02
2.66999993e-02 8.42000023e-02
110                                                             ! ANGINN
0 0 0 0                                                         ! NOUTE TOUTSE TOUTFE NSPOOLE
0                                                               ! NSTAE
0 0 0 0                                                         ! NOUTV TOUTSV TOUTFV NSPOOLV
0                                                               ! NSTAV
-5 0.000000 5.000000 1434                                       ! NOUTGE TOUTSGE TOUTFGE NSPOOLGE
-5 0.000000 5.000000 1434                                       ! NOUTGV TOUTSGV TOUTFGV NSPOOLGV
0                                                               ! NFREQ
0 0 0 0                                                         ! THAS THAF NHAINC FMV
0 0 0 0                                                         ! NHASE NHASV NHAGE NHAGV
5 172058                                                        ! NHSTAR NHSINC
1 0 1E-08 25                                                    ! ITITER ISLDIA CONVCR ITMAX
                                                                ! NCPROJ
                                                                ! NCINST
                                                                ! NCSOUR
                                                                ! NCHIST
                                                                ! NCREF
                                                                ! NCCOM
                                                                ! NCHOST
                                                                ! NCONV
                                                                ! NCCONT
2008-08-18 00:00                                                ! Forcing start date / NCDATE