&CORE
  ipre=0
  ibc=1
  ibtp=0
  rnday=2.0
  dt=150.0
  nspool=24
  ihfskip=1152
/

&OPT
  start_year=2008
  start_month=8
  start_day=23
  start_hour=0.0
  utc_start=-0.0
  ics=2
  nchi=-1
  hmin_man=1.0
  ncor=1
  ic_elev=1
/

&SCHOUT
  nhot=1
  nhot_write=1152
  iof_hydro(1)=1
  iof_hydro(16)=1
/
