&CORE
  ipre=0
  ibc=1
  ibtp=0
  nspool=1800
  ihfskip=604800
  dt=2.0
  rnday=14.0
/

&OPT
  start_year=2008
  start_month=9
  start_day=1
  start_hour=6.0
  utc_start=-0.0
  ics=2
  nchi=-1
  hmin_man=1.0
  nws=-1
  wtiminc=2.0
  model_type_pahm=10
/

&SCHOUT
  nhot=1
  nhot_write=604800
/
