created on 2021-06-22 18:13                                     ! RUNDES                              - 32 CHARACTER ALPHANUMERIC RUN DESCRIPTION
Shinacock Inlet Coarse Grid                                     ! RUNID                               - 24 CHARACTER ALPANUMERIC RUN IDENTIFICATION
1                                                               ! NFOVER                              - NONFATAL ERROR OVERRIDE OPTION
1                                                               ! NABOUT                              - ABREVIATED OUTPUT OPTION PARAMETER
100                                                             ! NSCREEN                             - UNIT 6 OUTPUT OPTION PARAMETER
567                                                             ! IHOT                                - HOT START PARAMETER
2                                                               ! ICS                                 - COORDINATE SYSTEM SELECTION PARAMETER
511113                                                          ! IM                                  - MODEL SELECTION PARAMETER
2                                                               ! NOLIBF                              - BOTTOM FRICTION TERM SELECTION PARAM; before NWP==1, '2' was used
2                                                               ! NOLIFA                              - FINITE AMPLITUDE TERM SELECTION PARAMETER
1                                                               ! NOLICA                              - SPATIAL DERIVATIVE CONVECTIVE SELECTION PARAMETER
1                                                               ! NOLICAT                             - TIME DERIVATIVE CONVECTIVE TERM SELECTION PARAMETER
1                                                               ! NWP                                 - VARIABLE BOTTOM FRICTION AND LATERAL VISCOSITY OPTION PARAMETER; default 0
primitive_weighting_in_continuity_equation
1                                                               ! NCOR                                - VARIABLE CORIOLIS IN SPACE OPTION PARAMETER
1                                                               ! NTIP                                - TIDAL POTENTIAL OPTION PARAMETER
517                                                             ! NWS                                 - WIND STRESS AND BAROMETRIC PRESSURE OPTION PARAMETER
8                                                               ! NRAMP                               - RAMP FUNCTION OPTION
9.81                                                            ! G                                   - ACCELERATION DUE TO GRAVITY - DETERMINES UNITS
-3                                                              ! TAU0                                - WEIGHTING FACTOR IN GWCE; original, 0.005
2.000000                                                        ! DTDP                                - TIME STEP (IN SECONDS)
0                                                               ! STATIM                              - STARTING TIME (IN DAYS)
0                                                               ! REFTIM                              - REFERENCE TIME (IN DAYS)
3600 3600                                                       ! WTIMINC RSTIMINC                    - meteorological data time increment, wave forcing increment
27                                                              ! RNDAY                               - TOTAL LENGTH OF SIMULATION (IN DAYS)
12.500 0.000 0.000 0.000 12.500 12.500 1.000 0.000 12.500       ! DRAMP                               - DURATION OF RAMP FUNCTION (IN DAYS)
0.5 0.5 0                                                       ! A00 B00 C00                         - TIME WEIGHTING FACTORS FOR THE GWCE EQUATION
0.01 0 0 0.01                                                   ! H0 NODEDRYMIN NODEWETRMP VELMIN    
-72.4759 40.7602                                                ! SLAM0 SFEA0                         - CENTER OF CPP PROJECTION (NOT USED IF ICS=1, NTIP=0, NCOR=0)
0.0025 1 10 0.333333                                            ! CF HBREAK FTHETA FGAMMA            
-0.2                                                            ! smagorinsky coefficient             - LATERAL EDDY VISCOSITY COEFFICIENT; IGNORED IF NWP =1
0                                                               ! CORI                                - CORIOLIS PARAMETER - IGNORED IF NCOR = 1
8                                                               ! NTIF                                - NUMBER OF TIDAL POTENTIAL CONSTITUENTS BEING FORCED starting 2008082300
Q1
0.019256 6.49585E-05 0.695 1.1459 103.157
O1
0.100514 6.75977E-05 0.695 1.1459 272.96
P1
0.046843 7.25229E-05 0.706 1 131.152
K1
0.141565 7.29212E-05 0.736 1.09012 234.173
N2
0.046398 0.00013788 0.693 0.972665 339.505
M2
0.242334 0.000140519 0.693 0.972665 149.308
S2
0.112841 0.000145444 0.693 1 0
K2
0.030704 0.000145842 0.693 1.23794 288.895
15
Q1
6.49585E-05 1.1459 103.157
O1
6.75977E-05 1.1459 272.96
P1
7.25229E-05 1 131.152
K1
7.29212E-05 1.09012 234.173
N2
0.00013788 0.972665 339.505
M2
0.000140519 0.972665 149.308
S2
0.000145444 1 0
K2
0.000145842 1.23794 288.895
Mm
2.6392E-06 0.903918 169.803
Mf
5.32341E-06 1.3486 143.388
M4
0.000281038 0.946077 298.616
MN4
0.000278399 0.946077 128.813
MS4
0.000285963 0.972665 149.308
2N2
0.00013524 0.972665 169.702
S1
7.27221E-05 1 180
Q1
9.94345757e-03 1.29325107e+02
1.14798856e-02 1.49286711e+02
1.29954372e-02 1.68980043e+02
1.36245755e-02 1.77103625e+02
1.36272547e-02 1.77041600e+02
1.36287924e-02 1.76977190e+02
1.36298076e-02 1.76911922e+02
1.36305517e-02 1.76846278e+02
1.36308119e-02 1.76780035e+02
1.36307739e-02 1.76713488e+02
1.36303582e-02 1.76649979e+02
1.36308722e-02 1.76598988e+02
1.36318979e-02 1.76516606e+02
1.36326791e-02 1.76417745e+02
1.36319489e-02 1.76317269e+02
1.36306394e-02 1.76218788e+02
1.36290319e-02 1.76121569e+02
1.36273405e-02 1.76024746e+02
1.36246902e-02 1.75933838e+02
1.36221273e-02 1.75842322e+02
1.36193032e-02 1.75752618e+02
1.36175848e-02 1.75664562e+02
1.36168071e-02 1.75575975e+02
1.36155304e-02 1.75492409e+02
1.36138347e-02 1.75412348e+02
1.36126004e-02 1.75310164e+02
1.36108670e-02 1.75215375e+02
1.36088216e-02 1.75125465e+02
1.36068644e-02 1.75034103e+02
1.36045405e-02 1.74949062e+02
1.36032933e-02 1.74870992e+02
1.36021999e-02 1.74794438e+02
1.36004724e-02 1.74731020e+02
1.35990439e-02 1.74661223e+02
1.35974803e-02 1.74594219e+02
1.35954945e-02 1.74544367e+02
1.35931401e-02 1.74518160e+02
1.35914105e-02 1.74474551e+02
1.35894900e-02 1.74440645e+02
1.35879801e-02 1.74412252e+02
1.35866857e-02 1.74377896e+02
1.35849240e-02 1.74356666e+02
1.35829341e-02 1.74342096e+02
1.35806073e-02 1.74337724e+02
1.35780881e-02 1.74339369e+02
1.35756833e-02 1.74337418e+02
1.35729688e-02 1.74345363e+02
1.35705567e-02 1.74370016e+02
1.35727944e-02 1.74387373e+02
1.35732286e-02 1.74399832e+02
1.35739578e-02 1.74435602e+02
1.35747116e-02 1.74473353e+02
1.35754668e-02 1.74511217e+02
1.35762909e-02 1.74554649e+02
1.35772774e-02 1.74611368e+02
1.35783057e-02 1.74671547e+02
1.35794203e-02 1.74738956e+02
1.35805795e-02 1.74810133e+02
1.35895753e-02 1.74853745e+02
1.36005174e-02 1.74905889e+02
1.36097333e-02 1.74968149e+02
1.36118994e-02 1.75062333e+02
1.36152378e-02 1.75165970e+02
1.36174753e-02 1.75261131e+02
1.36205884e-02 1.75363269e+02
1.36242273e-02 1.75469313e+02
1.36276803e-02 1.75584061e+02
1.36291682e-02 1.75756592e+02
1.36307920e-02 1.75929934e+02
1.36331325e-02 1.76106738e+02
1.36356623e-02 1.76284340e+02
1.36385448e-02 1.76462897e+02
1.36420503e-02 1.76643004e+02
1.17107698e-02 1.51764606e+02
9.71137205e-03 1.26002715e+02
O1
4.52838317e-02 1.36356986e+02
5.22819514e-02 1.57395531e+02
5.91848403e-02 1.78152508e+02
6.20793439e-02 1.86699605e+02
6.21428684e-02 1.86604981e+02
6.21983975e-02 1.86512356e+02
6.22501118e-02 1.86420957e+02
6.22998016e-02 1.86330286e+02
6.23458289e-02 1.86241011e+02
6.23895561e-02 1.86152683e+02
6.24292847e-02 1.86071641e+02
6.24727470e-02 1.86008522e+02
6.25255804e-02 1.85905432e+02
6.25793997e-02 1.85784028e+02
6.26317144e-02 1.85665080e+02
6.26774547e-02 1.85552092e+02
6.27196748e-02 1.85442460e+02
6.27608802e-02 1.85333821e+02
6.27896676e-02 1.85238254e+02
6.28196267e-02 1.85141411e+02
6.28460858e-02 1.85048375e+02
6.28777681e-02 1.84958884e+02
6.29158846e-02 1.84868333e+02
6.29461702e-02 1.84787420e+02
6.29698427e-02 1.84713493e+02
6.30043659e-02 1.84607108e+02
6.30301505e-02 1.84513225e+02
6.30503532e-02 1.84427449e+02
6.30721679e-02 1.84339299e+02
6.30871479e-02 1.84261347e+02
6.31067454e-02 1.84191497e+02
6.31267008e-02 1.84123549e+02
6.31338478e-02 1.84075654e+02
6.31471129e-02 1.84018111e+02
6.31576514e-02 1.83964836e+02
6.31536265e-02 1.83938219e+02
6.31310577e-02 1.83947866e+02
6.31234822e-02 1.83932241e+02
6.31082112e-02 1.83930718e+02
6.30911922e-02 1.83936574e+02
6.30792053e-02 1.83933943e+02
6.30562584e-02 1.83949863e+02
6.30278943e-02 1.83975034e+02
6.29914364e-02 1.84014142e+02
6.29503077e-02 1.84061355e+02
6.29119602e-02 1.84103736e+02
6.28660396e-02 1.84159325e+02
6.28160335e-02 1.84239682e+02
6.27873364e-02 1.84327617e+02
6.27574647e-02 1.84410039e+02
6.27157145e-02 1.84524410e+02
6.26729838e-02 1.84641416e+02
6.26301976e-02 1.84758570e+02
6.25847136e-02 1.84882968e+02
6.25329316e-02 1.85024263e+02
6.24795590e-02 1.85169820e+02
6.24229312e-02 1.85324095e+02
6.23646512e-02 1.85482790e+02
6.23608874e-02 1.85623127e+02
6.23629982e-02 1.85776577e+02
6.23543558e-02 1.85944556e+02
6.23058499e-02 1.86159522e+02
6.22581850e-02 1.86382699e+02
6.22094686e-02 1.86599210e+02
6.21614345e-02 1.86821637e+02
6.21139949e-02 1.87046880e+02
6.20677224e-02 1.87284744e+02
6.20287734e-02 1.87610370e+02
6.19900820e-02 1.87936244e+02
6.19529539e-02 1.88261842e+02
6.19162686e-02 1.88587135e+02
6.18805441e-02 1.88910814e+02
6.18465511e-02 1.89231372e+02
5.30767945e-02 1.62688638e+02
4.39993454e-02 1.35197817e+02
P1
1.87861887e-02 1.35139092e+02
2.16911383e-02 1.55988278e+02
2.45563136e-02 1.76558633e+02
2.57610639e-02 1.85009633e+02
2.57937962e-02 1.84881529e+02
2.58222607e-02 1.84757563e+02
2.58486933e-02 1.84635899e+02
2.58740484e-02 1.84515552e+02
2.58974558e-02 1.84397680e+02
2.59196411e-02 1.84281447e+02
2.59395352e-02 1.84175610e+02
2.59608074e-02 1.84093238e+02
2.59871935e-02 1.83960665e+02
2.60140230e-02 1.83806106e+02
2.60373439e-02 1.83657530e+02
2.60573838e-02 1.83517567e+02
2.60756733e-02 1.83382398e+02
2.60934593e-02 1.83248642e+02
2.61051189e-02 1.83133183e+02
2.61173548e-02 1.83015951e+02
2.61278687e-02 1.82904013e+02
2.61405829e-02 1.82798671e+02
2.61562245e-02 1.82692927e+02
2.61680172e-02 1.82600511e+02
2.61765116e-02 1.82517852e+02
2.61894407e-02 1.82393193e+02
2.61981712e-02 1.82285384e+02
2.62042275e-02 1.82188460e+02
2.62110540e-02 1.82088358e+02
2.62146235e-02 1.82001862e+02
2.62201969e-02 1.81927348e+02
2.62259118e-02 1.81855545e+02
2.62255961e-02 1.81810136e+02
2.62281541e-02 1.81752062e+02
2.62294282e-02 1.81699605e+02
2.62244674e-02 1.81683956e+02
2.62119110e-02 1.81718795e+02
2.62061878e-02 1.81720537e+02
2.61972584e-02 1.81741161e+02
2.61886399e-02 1.81772624e+02
2.61823321e-02 1.81793085e+02
2.61709940e-02 1.81837524e+02
2.61571724e-02 1.81893837e+02
2.61396445e-02 1.81967917e+02
2.61199798e-02 1.82052267e+02
2.61015872e-02 1.82130501e+02
2.60797325e-02 1.82225401e+02
2.60548385e-02 1.82353756e+02
2.60403101e-02 1.82507191e+02
2.60272808e-02 1.82648077e+02
2.60081331e-02 1.82831586e+02
2.59884775e-02 1.83018571e+02
2.59687930e-02 1.83205751e+02
2.59477050e-02 1.83402412e+02
2.59233255e-02 1.83620994e+02
2.58981095e-02 1.83845036e+02
2.58711738e-02 1.84080143e+02
2.58433602e-02 1.84320795e+02
2.58411537e-02 1.84554773e+02
2.58413065e-02 1.84808866e+02
2.58363522e-02 1.85079852e+02
2.58126724e-02 1.85403895e+02
2.57889696e-02 1.85738142e+02
2.57651647e-02 1.86064403e+02
2.57413683e-02 1.86397953e+02
2.57176642e-02 1.86734756e+02
2.56945339e-02 1.87089314e+02
2.56752530e-02 1.87568335e+02
2.56560452e-02 1.88047471e+02
2.56373212e-02 1.88524864e+02
2.56187394e-02 1.89001454e+02
2.56004878e-02 1.89474999e+02
2.55828359e-02 1.89942767e+02
2.19545592e-02 1.63397595e+02
1.81990921e-02 1.35898449e+02
K1
5.36915765e-02 1.31607371e+02
6.19990808e-02 1.51912015e+02
7.01921352e-02 1.71945064e+02
7.36825940e-02 1.80191651e+02
7.38576825e-02 1.80095762e+02
7.40148534e-02 1.80002419e+02
7.41633631e-02 1.79910552e+02
7.43072434e-02 1.79819543e+02
7.44427168e-02 1.79730163e+02
7.45728812e-02 1.79641872e+02
7.46902279e-02 1.79562755e+02
7.48036527e-02 1.79507224e+02
7.49502111e-02 1.79405344e+02
7.51039780e-02 1.79282413e+02
7.52469042e-02 1.79165139e+02
7.53735343e-02 1.79054500e+02
7.54914083e-02 1.78947563e+02
7.56067535e-02 1.78841716e+02
7.56909815e-02 1.78750039e+02
7.57781533e-02 1.78656987e+02
7.58565320e-02 1.78568038e+02
7.59378246e-02 1.78485079e+02
7.60287094e-02 1.78402374e+02
7.60992484e-02 1.78330068e+02
7.61529575e-02 1.78264897e+02
7.62389308e-02 1.78160478e+02
7.63020669e-02 1.78069600e+02
7.63506239e-02 1.77987478e+02
7.64033889e-02 1.77902797e+02
7.64383232e-02 1.77829082e+02
7.64739417e-02 1.77766196e+02
7.65086797e-02 1.77705686e+02
7.65102075e-02 1.77666513e+02
7.65275668e-02 1.77617097e+02
7.65378556e-02 1.77572222e+02
7.65071762e-02 1.77558515e+02
7.64230510e-02 1.77588117e+02
7.63779473e-02 1.77590617e+02
7.63119563e-02 1.77609024e+02
7.62386998e-02 1.77637883e+02
7.61783774e-02 1.77657773e+02
7.60899694e-02 1.77697200e+02
7.59877844e-02 1.77746290e+02
7.58651665e-02 1.77809822e+02
7.57308361e-02 1.77881694e+02
7.56034721e-02 1.77948599e+02
7.54572039e-02 1.78029030e+02
7.52875610e-02 1.78139750e+02
7.51231622e-02 1.78282048e+02
7.49734576e-02 1.78419507e+02
7.47836840e-02 1.78592400e+02
7.45906631e-02 1.78768159e+02
7.43974606e-02 1.78944078e+02
7.41954476e-02 1.79127758e+02
7.39731731e-02 1.79329255e+02
7.37458927e-02 1.79535141e+02
7.35085245e-02 1.79749856e+02
7.32661410e-02 1.79968948e+02
7.30920954e-02 1.80201439e+02
7.29139602e-02 1.80454013e+02
7.27157409e-02 1.80722759e+02
7.24487726e-02 1.81043562e+02
7.21775521e-02 1.81371019e+02
7.19089692e-02 1.81693842e+02
7.16374922e-02 1.82021298e+02
7.13652326e-02 1.82350400e+02
7.10896186e-02 1.82700561e+02
7.07895617e-02 1.83200728e+02
7.04898768e-02 1.83700577e+02
7.01936477e-02 1.84196280e+02
6.98985488e-02 1.84690527e+02
6.96065441e-02 1.85180425e+02
6.93202557e-02 1.85662227e+02
5.93321088e-02 1.59750761e+02
4.90031549e-02 1.32906755e+02
N2
9.72804155e-02 2.42321895e+02
1.12480895e-01 2.79671682e+02
1.27451288e-01 3.16526915e+02
1.33620254e-01 3.31855207e+02
1.33614287e-01 3.31944942e+02
1.33535860e-01 3.32040239e+02
1.33424866e-01 3.32137729e+02
1.33297162e-01 3.32236250e+02
1.33139813e-01 3.32336503e+02
1.32964364e-01 3.32437724e+02
1.32762780e-01 3.32549604e+02
1.32604411e-01 3.32693223e+02
1.32400799e-01 3.32753674e+02
1.32137279e-01 3.32771987e+02
1.31699549e-01 3.32801712e+02
1.31236909e-01 3.32834915e+02
1.30762394e-01 3.32869848e+02
1.30284689e-01 3.32905259e+02
1.29776069e-01 3.32945784e+02
1.29269994e-01 3.32985859e+02
1.28756288e-01 3.33027277e+02
1.28305480e-01 3.33072258e+02
1.27901835e-01 3.33118357e+02
1.27489433e-01 3.33167269e+02
1.27066418e-01 3.33213150e+02
1.26575742e-01 3.33187202e+02
1.26086209e-01 3.33167661e+02
1.25598438e-01 3.33152215e+02
1.25109868e-01 3.33135586e+02
1.24625773e-01 3.33123974e+02
1.24210512e-01 3.33112883e+02
1.23806828e-01 3.33102155e+02
1.23420155e-01 3.33100798e+02
1.23024653e-01 3.33094972e+02
1.22632751e-01 3.33091141e+02
1.22297980e-01 3.33111761e+02
1.22058881e-01 3.33169962e+02
1.21781773e-01 3.33214603e+02
1.21533476e-01 3.33260752e+02
1.21326972e-01 3.33288476e+02
1.21107439e-01 3.33311325e+02
1.20917005e-01 3.33344759e+02
1.20741841e-01 3.33383385e+02
1.20590778e-01 3.33429712e+02
1.20454296e-01 3.33480452e+02
1.20309066e-01 3.33528567e+02
1.20188207e-01 3.33583805e+02
1.20080808e-01 3.33670964e+02
1.20043501e-01 3.33760260e+02
1.19963704e-01 3.33829905e+02
1.19947769e-01 3.33925186e+02
1.19937402e-01 3.34022578e+02
1.19927359e-01 3.34120088e+02
1.19933244e-01 3.34223389e+02
1.19977820e-01 3.34340180e+02
1.20032711e-01 3.34460364e+02
1.20109489e-01 3.34587480e+02
1.20197888e-01 3.34718102e+02
1.20394590e-01 3.34857035e+02
1.20661420e-01 3.35011541e+02
1.20904474e-01 3.35168621e+02
1.21027045e-01 3.35327551e+02
1.21212794e-01 3.35497454e+02
1.21339246e-01 3.35657778e+02
1.21512875e-01 3.35826146e+02
1.21714814e-01 3.35998834e+02
1.21912453e-01 3.36192799e+02
1.22045049e-01 3.36534123e+02
1.22184932e-01 3.36876186e+02
1.22362972e-01 3.37220506e+02
1.22551053e-01 3.37565183e+02
1.22757675e-01 3.37909446e+02
1.22996994e-01 3.38252698e+02
1.05429317e-01 2.90650278e+02
8.72391856e-02 2.41356740e+02
M2
4.11701601e-01 2.54314830e+02
4.76028684e-01 2.93522606e+02
5.39382482e-01 3.32209902e+02
5.65387218e-01 3.48304805e+02
5.65181484e-01 3.48409875e+02
5.64678724e-01 3.48516747e+02
5.64043088e-01 3.48624066e+02
5.63339471e-01 3.48731505e+02
5.62515436e-01 3.48839041e+02
5.61618060e-01 3.48946532e+02
5.60597186e-01 3.49060468e+02
5.59686564e-01 3.49198881e+02
5.58628150e-01 3.49277062e+02
5.57346815e-01 3.49323025e+02
5.55427097e-01 3.49372060e+02
5.53397145e-01 3.49421612e+02
5.51314606e-01 3.49471318e+02
5.49217931e-01 3.49521051e+02
5.46984014e-01 3.49570412e+02
5.44761410e-01 3.49619839e+02
5.42504885e-01 3.49669071e+02
5.40452301e-01 3.49721261e+02
5.38560664e-01 3.49775530e+02
5.36625699e-01 3.49829049e+02
5.34648257e-01 3.49877300e+02
5.32479670e-01 3.49868322e+02
5.30306656e-01 3.49861320e+02
5.28135458e-01 3.49855582e+02
5.25962429e-01 3.49849478e+02
5.23802037e-01 3.49844928e+02
5.21915465e-01 3.49840529e+02
5.20074822e-01 3.49836242e+02
5.18297089e-01 3.49834875e+02
5.16486059e-01 3.49832114e+02
5.14688319e-01 3.49829974e+02
5.13081057e-01 3.49844380e+02
5.11796023e-01 3.49886080e+02
5.10364641e-01 3.49921779e+02
5.09057920e-01 3.49956146e+02
5.07966250e-01 3.49974991e+02
5.06824265e-01 3.49991567e+02
5.05795491e-01 3.50013052e+02
5.04827143e-01 3.50036924e+02
5.03955554e-01 3.50064305e+02
5.03143187e-01 3.50093680e+02
5.02295225e-01 3.50121871e+02
5.01546962e-01 3.50153263e+02
5.00808632e-01 3.50206455e+02
5.00255675e-01 3.50270615e+02
4.99634134e-01 3.50317421e+02
4.99238444e-01 3.50380361e+02
4.98862862e-01 3.50444626e+02
4.98488463e-01 3.50508965e+02
4.98172403e-01 3.50576932e+02
4.97999999e-01 3.50653329e+02
4.97866561e-01 3.50731840e+02
4.97816721e-01 3.50814659e+02
4.97811848e-01 3.50899652e+02
4.97996313e-01 3.51013531e+02
4.98400436e-01 3.51142426e+02
4.98784556e-01 3.51269927e+02
4.98989976e-01 3.51386148e+02
4.99411610e-01 3.51511156e+02
4.99629192e-01 3.51628436e+02
5.00008458e-01 3.51752169e+02
5.00485538e-01 3.51879408e+02
5.00967087e-01 3.52022296e+02
5.01360595e-01 3.52273141e+02
5.01779681e-01 3.52524619e+02
5.02333044e-01 3.52778232e+02
5.02921794e-01 3.53032235e+02
5.03576122e-01 3.53286172e+02
5.04346162e-01 3.53539790e+02
4.32380773e-01 3.03727025e+02
3.57869986e-01 2.52148575e+02
S2
8.47507905e-02 9.14875695e+00
9.80082039e-02 1.05388930e+01
1.11062913e-01 1.19134131e+01
1.16395793e-01 1.25539373e+01
1.16312488e-01 1.26729258e+01
1.16164258e-01 1.27941052e+01
1.15987116e-01 1.29158600e+01
1.15795222e-01 1.30377852e+01
1.15577240e-01 1.31598825e+01
1.15343409e-01 1.32819664e+01
1.15086732e-01 1.34113006e+01
1.14867233e-01 1.35678986e+01
1.14604532e-01 1.36516549e+01
1.14288008e-01 1.36965322e+01
1.13819338e-01 1.37473252e+01
1.13330230e-01 1.37985751e+01
1.12831632e-01 1.38499443e+01
1.12330530e-01 1.39013280e+01
1.11806843e-01 1.39521934e+01
1.11284917e-01 1.40031396e+01
1.10757701e-01 1.40538471e+01
1.10286806e-01 1.41067657e+01
1.09856788e-01 1.41613199e+01
1.09423038e-01 1.42149708e+01
1.08984437e-01 1.42626131e+01
1.08491476e-01 1.42449710e+01
1.08004073e-01 1.42296369e+01
1.07521222e-01 1.42157954e+01
1.07036775e-01 1.42015177e+01
1.06560145e-01 1.41891080e+01
1.06153686e-01 1.41756622e+01
1.05759192e-01 1.41621603e+01
1.05387642e-01 1.41523215e+01
1.05004464e-01 1.41407184e+01
1.04626149e-01 1.41298947e+01
1.04302831e-01 1.41372196e+01
1.04068029e-01 1.41743484e+01
1.03790536e-01 1.42042307e+01
1.03546691e-01 1.42321303e+01
1.03353919e-01 1.42401342e+01
1.03146741e-01 1.42453201e+01
1.02971635e-01 1.42566482e+01
1.02813235e-01 1.42710176e+01
1.02681038e-01 1.42899388e+01
1.02564609e-01 1.43114910e+01
1.02438727e-01 1.43314762e+01
1.02339116e-01 1.43557316e+01
1.02249474e-01 1.44050248e+01
1.02207368e-01 1.44578823e+01
1.02145547e-01 1.44898973e+01
1.02143461e-01 1.45412700e+01
1.02146568e-01 1.45942612e+01
1.02149976e-01 1.46473445e+01
1.02168208e-01 1.47049229e+01
1.02222373e-01 1.47731000e+01
1.02286093e-01 1.48439912e+01
1.02370051e-01 1.49204913e+01
1.02464735e-01 1.49998738e+01
1.02599197e-01 1.51016448e+01
1.02784761e-01 1.52197550e+01
1.02968340e-01 1.53367913e+01
1.03119948e-01 1.54425506e+01
1.03318893e-01 1.55600657e+01
1.03473722e-01 1.56669811e+01
1.03663833e-01 1.57825846e+01
1.03874897e-01 1.59030959e+01
1.04089295e-01 1.60419336e+01
1.04302393e-01 1.63060504e+01
1.04520731e-01 1.65711857e+01
1.04765936e-01 1.68404476e+01
1.05018126e-01 1.71106184e+01
1.05282827e-01 1.73816619e+01
1.05569493e-01 1.76540362e+01
9.05892350e-02 1.52821762e+01
7.50741750e-02 1.28170305e+01
K2
1.85013038e-02 1.81610721e+01
2.13863493e-02 2.09688197e+01
2.42285319e-02 2.37381987e+01
2.54097072e-02 2.48819592e+01
2.54245058e-02 2.48769572e+01
2.54269509e-02 2.48697560e+01
2.54237892e-02 2.48615829e+01
2.54177343e-02 2.48529164e+01
2.54065287e-02 2.48433795e+01
2.53921626e-02 2.48333159e+01
2.53705344e-02 2.48385875e+01
2.53469635e-02 2.49026320e+01
2.53518972e-02 2.48742154e+01
2.53649638e-02 2.47969032e+01
2.53339289e-02 2.46938962e+01
2.52982898e-02 2.45984008e+01
2.52603412e-02 2.45070269e+01
2.52217516e-02 2.44168568e+01
2.51761826e-02 2.43419720e+01
2.51312326e-02 2.42656197e+01
2.50844307e-02 2.41936493e+01
2.50481219e-02 2.41502628e+01
2.50201911e-02 2.41214337e+01
2.49891245e-02 2.41047019e+01
2.49556504e-02 2.40916264e+01
2.49262296e-02 2.39759133e+01
2.48939189e-02 2.38784547e+01
2.48598489e-02 2.37927496e+01
2.48262626e-02 2.37036239e+01
2.47907168e-02 2.36290971e+01
2.47651427e-02 2.35691803e+01
2.47410808e-02 2.35124412e+01
2.47140434e-02 2.34836398e+01
2.46883738e-02 2.34414691e+01
2.46620691e-02 2.34052447e+01
2.46398758e-02 2.34285273e+01
2.46268386e-02 2.35408318e+01
2.46150036e-02 2.36146271e+01
2.46061006e-02 2.37019039e+01
2.46098958e-02 2.37704598e+01
2.46143529e-02 2.38257560e+01
2.46173512e-02 2.39098635e+01
2.46196070e-02 2.40081272e+01
2.46207226e-02 2.41274200e+01
2.46211640e-02 2.42587851e+01
2.46220084e-02 2.43829681e+01
2.46217421e-02 2.45266554e+01
2.46083905e-02 2.47323137e+01
2.46301361e-02 2.49936007e+01
2.46562959e-02 2.51774436e+01
2.46780040e-02 2.54312620e+01
2.46992987e-02 2.56908470e+01
2.47205686e-02 2.59507575e+01
2.47406062e-02 2.62265141e+01
2.47575327e-02 2.65392142e+01
2.47735892e-02 2.68612259e+01
2.47877441e-02 2.72022705e+01
2.48008543e-02 2.75529579e+01
2.48547216e-02 2.80385483e+01
2.49136875e-02 2.85923082e+01
2.49691109e-02 2.91231390e+01
2.50115154e-02 2.95391150e+01
2.50518055e-02 3.00021871e+01
2.50943234e-02 3.04227541e+01
2.51352119e-02 3.08781361e+01
2.51749510e-02 3.13532130e+01
2.52103163e-02 3.18503286e+01
2.52161281e-02 3.24826257e+01
2.52215585e-02 3.31192028e+01
2.52249292e-02 3.37754661e+01
2.52277487e-02 3.44365105e+01
2.52295086e-02 3.51045638e+01
2.52293889e-02 3.57845084e+01
2.16833150e-02 3.09524231e+01
1.80118825e-02 2.59273468e+01
Mm
1.53682601e-03 1.73565744e+02
1.77381406e-03 2.00336593e+02
2.00764841e-03 2.26750361e+02
2.10301015e-03 2.37788872e+02
2.10027926e-03 2.37951644e+02
2.09769730e-03 2.38106831e+02
2.09519172e-03 2.38258046e+02
2.09272821e-03 2.38407051e+02
2.09034235e-03 2.38551957e+02
2.08800663e-03 2.38694196e+02
2.08580437e-03 2.38829701e+02
2.08367228e-03 2.38962944e+02
2.08175675e-03 2.39085068e+02
2.08006349e-03 2.39195526e+02
2.07823776e-03 2.39312599e+02
2.07660569e-03 2.39419223e+02
2.07507797e-03 2.39520176e+02
2.07358043e-03 2.39619482e+02
2.07245591e-03 2.39698192e+02
2.07129602e-03 2.39778866e+02
2.07024176e-03 2.39853678e+02
2.06931504e-03 2.39921695e+02
2.06837774e-03 2.39990484e+02
2.06769480e-03 2.40045013e+02
2.06725689e-03 2.40085780e+02
2.06689800e-03 2.40123098e+02
2.06679287e-03 2.40145909e+02
2.06684847e-03 2.40159495e+02
2.06685804e-03 2.40175734e+02
2.06706134e-03 2.40180773e+02
2.06746690e-03 2.40175975e+02
2.06791516e-03 2.40168995e+02
2.06871045e-03 2.40141600e+02
2.06934182e-03 2.40123884e+02
2.07004712e-03 2.40101820e+02
2.07102263e-03 2.40061784e+02
2.07227016e-03 2.40001857e+02
2.07316385e-03 2.39963701e+02
2.07430530e-03 2.39910985e+02
2.07571440e-03 2.39844006e+02
2.07701284e-03 2.39783953e+02
2.07854932e-03 2.39708941e+02
2.08019977e-03 2.39626690e+02
2.08201521e-03 2.39533846e+02
2.08392309e-03 2.39435007e+02
2.08577620e-03 2.39339726e+02
2.08777617e-03 2.39234850e+02
2.08991602e-03 2.39121857e+02
2.09203180e-03 2.39010512e+02
2.09404992e-03 2.38906432e+02
2.09634236e-03 2.38783976e+02
2.09865581e-03 2.38660075e+02
2.10097039e-03 2.38536095e+02
2.10333942e-03 2.38408283e+02
2.10582719e-03 2.38271892e+02
2.10834195e-03 2.38133465e+02
2.11090765e-03 2.37991058e+02
2.11349638e-03 2.37846755e+02
2.11593029e-03 2.37707958e+02
2.11841780e-03 2.37563055e+02
2.12088269e-03 2.37418081e+02
2.12320938e-03 2.37277073e+02
2.12556572e-03 2.37132126e+02
2.12790611e-03 2.36990178e+02
2.13026616e-03 2.36845433e+02
2.13262965e-03 2.36699502e+02
2.13494506e-03 2.36555369e+02
2.13692608e-03 2.36424755e+02
2.13890322e-03 2.36294119e+02
2.14084994e-03 2.36164012e+02
2.14278719e-03 2.36034137e+02
2.14470020e-03 2.35905120e+02
2.14656874e-03 2.35777724e+02
1.84469079e-03 2.02393261e+02
1.53209294e-03 1.67836547e+02
Mf
1.95496366e-03 1.91084114e+02
2.25619386e-03 2.20558767e+02
2.55344857e-03 2.49640029e+02
2.67569284e-03 2.61856280e+02
2.67394867e-03 2.62146946e+02
2.67240060e-03 2.62423355e+02
2.67094673e-03 2.62692352e+02
2.66954305e-03 2.62957238e+02
2.66823033e-03 2.63214512e+02
2.66697490e-03 2.63466847e+02
2.66589345e-03 2.63706586e+02
2.66498329e-03 2.63941589e+02
2.66395835e-03 2.64158327e+02
2.66299482e-03 2.64354685e+02
2.66212536e-03 2.64561115e+02
2.66144094e-03 2.64748521e+02
2.66085420e-03 2.64925614e+02
2.66029541e-03 2.65099714e+02
2.66007082e-03 2.65236485e+02
2.65981506e-03 2.65376810e+02
2.65965246e-03 2.65506520e+02
2.65959827e-03 2.65623526e+02
2.65953215e-03 2.65741670e+02
2.65968279e-03 2.65834028e+02
2.66000584e-03 2.65901908e+02
2.65996589e-03 2.65968533e+02
2.66015805e-03 2.66008709e+02
2.66049662e-03 2.66032071e+02
2.66079343e-03 2.66060266e+02
2.66126532e-03 2.66068053e+02
2.66184170e-03 2.66058996e+02
2.66244395e-03 2.66046134e+02
2.66335495e-03 2.65996090e+02
2.66412049e-03 2.65963675e+02
2.66495183e-03 2.65923340e+02
2.66617559e-03 2.65848065e+02
2.66790384e-03 2.65732718e+02
2.66929329e-03 2.65657453e+02
2.67088922e-03 2.65555813e+02
2.67262414e-03 2.65429528e+02
2.67425243e-03 2.65316012e+02
2.67610901e-03 2.65174925e+02
2.67807357e-03 2.65020504e+02
2.68019239e-03 2.64846589e+02
2.68239656e-03 2.64661647e+02
2.68455026e-03 2.64483248e+02
2.68683834e-03 2.64287213e+02
2.68942995e-03 2.64075685e+02
2.69260870e-03 2.63864082e+02
2.69569772e-03 2.63665946e+02
2.69913105e-03 2.63433667e+02
2.70259006e-03 2.63198708e+02
2.70605044e-03 2.62963601e+02
2.70957585e-03 2.62721406e+02
2.71323913e-03 2.62463364e+02
2.71693221e-03 2.62201573e+02
2.72067908e-03 2.61932475e+02
2.72444850e-03 2.61659907e+02
2.72834988e-03 2.61397046e+02
2.73236700e-03 2.61122938e+02
2.73650682e-03 2.60847920e+02
2.74105625e-03 2.60577186e+02
2.74554673e-03 2.60299817e+02
2.75011693e-03 2.60027327e+02
2.75463805e-03 2.59750162e+02
2.75911251e-03 2.59471143e+02
2.76367250e-03 2.59194704e+02
2.76892565e-03 2.58937473e+02
2.77415641e-03 2.58680316e+02
2.77924205e-03 2.58424822e+02
2.78428543e-03 2.58169951e+02
2.78923220e-03 2.57917081e+02
2.79400378e-03 2.57667958e+02
2.40334845e-03 2.21110872e+02
1.99871484e-03 1.83274452e+02
M4
5.43827519e-03 1.63612985e+02
6.42102116e-03 1.88745596e+02
7.37057383e-03 2.13557367e+02
7.71853676e-03 2.24661219e+02
7.67911042e-03 2.26079564e+02
7.58806345e-03 2.27469485e+02
7.47393638e-03 2.28841737e+02
7.34800502e-03 2.30203430e+02
7.20116836e-03 2.31544833e+02
7.04160300e-03 2.32872431e+02
6.85382391e-03 2.34492714e+02
6.66089267e-03 2.37278760e+02
6.52510953e-03 2.39716031e+02
6.39773410e-03 2.41978245e+02
6.23084467e-03 2.43695413e+02
6.03522607e-03 2.45514250e+02
5.82513499e-03 2.47381712e+02
5.61101660e-03 2.49262267e+02
5.35266949e-03 2.51270757e+02
5.09826405e-03 2.53268655e+02
4.83206594e-03 2.55298310e+02
4.68557578e-03 2.59810952e+02
4.62649061e-03 2.65894538e+02
4.55002177e-03 2.72165635e+02
4.45332029e-03 2.78297714e+02
4.29419252e-03 2.80737545e+02
4.12284058e-03 2.83497287e+02
3.94412075e-03 2.86453515e+02
3.76740487e-03 2.89355209e+02
3.58265556e-03 2.92479843e+02
3.56069018e-03 2.96388017e+02
3.56444367e-03 3.00431453e+02
3.55546073e-03 3.04811025e+02
3.55253151e-03 3.09038548e+02
3.54689010e-03 3.13337893e+02
3.62204436e-03 3.18030583e+02
3.84519059e-03 3.23167421e+02
4.06413748e-03 3.28038118e+02
4.29414207e-03 3.32461712e+02
4.55343223e-03 3.34764639e+02
4.81283366e-03 3.36946039e+02
5.07124673e-03 3.39386690e+02
5.32825134e-03 3.41948776e+02
5.58181880e-03 3.44682588e+02
5.83270660e-03 3.47510430e+02
6.08525837e-03 3.50282781e+02
6.33270819e-03 3.53202072e+02
6.61244982e-03 3.46557244e+02
7.04636611e-03 3.18298339e+02
7.47720068e-03 2.91107008e+02
7.91581815e-03 2.59092426e+02
8.35457159e-03 2.26698256e+02
8.79331675e-03 1.94283218e+02
9.23139359e-03 1.60861950e+02
9.66533144e-03 1.25186060e+02
1.00972945e-02 8.89748587e+01
1.05238863e-02 5.17166951e+01
1.09468742e-02 1.39593241e+01
1.14574702e-02 9.42960304e+00
1.19733929e-02 1.04789191e+01
1.25102844e-02 1.14638320e+01
1.31311659e-02 1.21478347e+01
1.37175631e-02 1.29351350e+01
1.43399243e-02 1.36280128e+01
1.49357880e-02 1.43974997e+01
1.55132141e-02 1.52111752e+01
1.61204143e-02 1.59895476e+01
1.69663171e-02 1.64651073e+01